Circuit: * Z:\home\krati\spice\ee18btech11050_sim.asc

Direct Newton iteration for .op point succeeded.

Date: Wed May 27 14:36:01 2020
Total elapsed time: 46.731 seconds.

tnom = 27
temp = 27
method = modified trap
totiter = 9730675
traniter = 9730664
tranpoints = 3149044
accept = 2210860
rejected = 938184
matrix size = 39
fillins = 33
solver = Normal
Matrix Compiler1: 3.30 KB object code size  0.8/0.4/[0.2]
Matrix Compiler2: off  [0.4]/0.5/0.4

